/*--------------------------------*- C++ -*----------------------------------*\
  =========                 |
  \\      /  F ield         | OpenFOAM: The Open Source CFD Toolbox
   \\    /   O peration     | https://openfoam.org
    \\  /    A nd           | Version: 13
     \\/     M anipulation  |
\*---------------------------------------------------------------------------*/
FoamFile
{
    format      ascii;
    class       dictionary;
    location    "system";
    object      fvSolution;
}
// * * * * * * * * * * * * * * * * * * * * * * * * * * * * * * * * * * * * * //

solvers
{
    p
    {
        solver          PCG;
        preconditioner  DIC;
        tolerance       1e-06;
        relTol          0.1;
    }

    U
    {
        solver          smoothSolver;
        smoother        symGaussSeidel;
        tolerance       1e-05;
        relTol          0.1;
    }
}

PIMPLE
{
    nCorrectors            10;
    nNonOrthogonalCorrectors 0;

    pRefCell               0;
    pRefValue              0;


    residualControl
    {
        p                   1e-3;
        U                   1e-4;
    }
}

relaxationFactors
{
    fields
    {
        p 0.3;
    }

    equations
    {
        U 0.7;
    }
}

// ************************************************************************* //
