/*--------------------------------*- C++ -*----------------------------------*\
  =========                 |
  \\      /  F ield         | OpenFOAM: The Open Source CFD Toolbox
   \\    /   O peration     | Website:  https://openfoam.org
    \\  /    A nd           | Version:  13
     \\/     M anipulation  |
\*---------------------------------------------------------------------------*/
FoamFile
{
    format      ascii;
    class       polyBoundaryMesh;
    location    "constant/polyMesh";
    object      boundary;
}
// * * * * * * * * * * * * * * * * * * * * * * * * * * * * * * * * * * * * * //

4
(
    inlet
    {
        type            patch;
        physicalType    patch;
        nFaces          3713;
        startFace       3046358;
    }
    outlet
    {
        type            patch;
        physicalType    patch;
        nFaces          3713;
        startFace       3050071;
    }
    wall
    {
        type            patch;
        physicalType    patch;
        nFaces          21446;
        startFace       3053784;
    }
    probe
    {
        type            patch;
        physicalType    patch;
        nFaces          26432;
        startFace       3075230;
    }
)

// ************************************************************************* //
