/*--------------------------------*- C++ -*----------------------------------*\
  =========                 |
  \\      /  F ield         | OpenFOAM: The Open Source CFD Toolbox
   \\    /   O peration     | Website:  https://openfoam.org
    \\  /    A nd           | Version:  13
     \\/     M anipulation  |
\*---------------------------------------------------------------------------*/
FoamFile
{
    format      ascii;
    class       featureEdgeMesh;
    location    "constant/triSurface";
    object      wall.eMesh;
}
// * * * * * * * * * * * * * * * * * * * * * * * * * * * * * * * * * * * * * //


// points:

358
(
(-13.3602 -1.63615e-15 29.99)
(-13.3519 -0.468867 29.99)
(13.3581 -0.23447 29.99)
(13.3581 0.23447 29.99)
(-13.3519 0.468867 29.99)
(13.3417 0.70312 29.99)
(-13.3273 0.937157 29.99)
(13.3088 1.1709 29.99)
(-13.2862 1.40429 29.99)
(13.2595 1.63725 29.99)
(-13.2287 1.8697 29.99)
(13.1939 2.10157 29.99)
(-13.1549 2.3328 29.99)
(13.112 2.56331 29.99)
(-13.065 2.79303 29.99)
(13.0139 3.02188 29.99)
(-12.9589 3.24981 29.99)
(12.8999 3.47674 29.99)
(-12.8369 3.70259 29.99)
(12.7699 3.92731 29.99)
(-12.699 4.15082 29.99)
(12.6242 4.37304 29.99)
(-12.5455 4.59392 29.99)
(12.463 4.81339 29.99)
(-12.3766 5.03137 29.99)
(12.2864 5.2478 29.99)
(-12.1924 5.46262 29.99)
(12.0946 5.67575 29.99)
(-11.9932 5.88714 29.99)
(11.888 6.09671 29.99)
(-11.7792 6.3044 29.99)
(11.6667 6.51016 29.99)
(-11.5507 6.7139 29.99)
(11.4311 6.91558 29.99)
(-11.3079 7.11513 29.99)
(11.1813 7.31249 29.99)
(-11.0513 7.50759 29.99)
(10.9178 7.70039 29.99)
(10.6408 8.0788 29.99)
(13.3417 -0.70312 29.99)
(-13.3273 -0.937157 29.99)
(13.3088 -1.1709 29.99)
(-13.2862 -1.40429 29.99)
(13.2595 -1.63725 29.99)
(-13.2287 -1.8697 29.99)
(13.1939 -2.10157 29.99)
(-13.1549 -2.3328 29.99)
(13.112 -2.56331 29.99)
(-13.065 -2.79303 29.99)
(13.0139 -3.02188 29.99)
(-12.9589 -3.24981 29.99)
(12.8999 -3.47674 29.99)
(-12.8369 -3.70259 29.99)
(12.7699 -3.92731 29.99)
(-12.699 -4.15082 29.99)
(12.6242 -4.37304 29.99)
(-12.5455 -4.59392 29.99)
(12.463 -4.81339 29.99)
(-12.3766 -5.03137 29.99)
(12.2864 -5.2478 29.99)
(-12.1924 -5.46262 29.99)
(12.0946 -5.67575 29.99)
(-11.9932 -5.88714 29.99)
(11.888 -6.09671 29.99)
(-11.7792 -6.3044 29.99)
(11.6667 -6.51016 29.99)
(-11.5507 -6.7139 29.99)
(11.4311 -6.91558 29.99)
(-11.3079 -7.11513 29.99)
(11.1813 -7.31249 29.99)
(-11.0513 -7.50759 29.99)
(10.9178 -7.70039 29.99)
(-10.781 -7.89081 29.99)
(10.6408 -8.0788 29.99)
(-10.4974 -8.2643 29.99)
(10.3508 -8.44725 29.99)
(-10.2009 -8.62761 29.99)
(10.0479 -8.8053 29.99)
(-9.89185 -8.98029 29.99)
(9.73273 -9.1525 29.99)
(-9.5706 -9.3219 29.99)
(9.40553 -9.48843 29.99)
(-9.23756 -9.65203 29.99)
(9.06674 -9.81267 29.99)
(-8.89314 -9.97028 29.99)
(8.71679 -10.1248 29.99)
(-8.53776 -10.2762 29.99)
(8.3561 -10.4245 29.99)
(-8.17186 -10.5695 29.99)
(7.98511 -10.7113 29.99)
(-7.7959 -10.8498 29.99)
(7.60428 -10.985 29.99)
(-7.41033 -11.1167 29.99)
(7.21409 -11.2451 29.99)
(-7.01563 -11.3699 29.99)
(6.81501 -11.4913 29.99)
(-6.61228 -11.6091 29.99)
(6.40753 -11.7234 29.99)
(-6.2008 -11.834 29.99)
(5.99216 -11.941 29.99)
(-5.78167 -12.0444 29.99)
(5.5694 -12.144 29.99)
(-5.35542 -12.2398 29.99)
(5.13978 -12.3319 29.99)
(-4.92257 -12.4202 29.99)
(4.70384 -12.5047 29.99)
(-4.48366 -12.5854 29.99)
(4.26209 -12.6621 29.99)
(-4.03922 -12.735 29.99)
(3.8151 -12.8039 29.99)
(-3.5898 -12.8689 29.99)
(3.3634 -12.9299 29.99)
(-3.13597 -12.9869 29.99)
(2.90757 -13.04 29.99)
(-2.67827 -13.089 29.99)
(2.44815 -13.134 29.99)
(-2.21727 -13.1749 29.99)
(1.98571 -13.2118 29.99)
(-1.75354 -13.2446 29.99)
(1.52083 -13.2733 29.99)
(-1.28765 -13.298 29.99)
(1.05407 -13.3185 29.99)
(-0.82017 -13.335 29.99)
(0.586016 -13.3473 29.99)
(-0.351682 -13.3555 29.99)
(0.117239 -13.3597 29.99)
(10.3508 8.44725 29.99)
(10.0479 8.8053 29.99)
(9.73273 9.1525 29.99)
(9.40553 9.48843 29.99)
(9.06674 9.81267 29.99)
(8.71679 10.1248 29.99)
(8.3561 10.4245 29.99)
(7.98511 10.7113 29.99)
(7.60428 10.985 29.99)
(7.21409 11.2451 29.99)
(6.81501 11.4913 29.99)
(6.40753 11.7234 29.99)
(5.99216 11.941 29.99)
(5.5694 12.144 29.99)
(5.13978 12.3319 29.99)
(4.70384 12.5047 29.99)
(4.26209 12.6621 29.99)
(3.8151 12.8039 29.99)
(3.3634 12.9299 29.99)
(2.90757 13.04 29.99)
(2.44815 13.134 29.99)
(1.98571 13.2118 29.99)
(1.52083 13.2733 29.99)
(1.05407 13.3185 29.99)
(0.586016 13.3473 29.99)
(0.117239 13.3597 29.99)
(-0.351682 13.3555 29.99)
(-0.82017 13.335 29.99)
(-1.28765 13.298 29.99)
(-1.75354 13.2446 29.99)
(-2.21727 13.1749 29.99)
(-2.67827 13.089 29.99)
(-3.13597 12.9869 29.99)
(-3.5898 12.8689 29.99)
(-4.03922 12.735 29.99)
(-10.781 7.89081 29.99)
(-4.48366 12.5854 29.99)
(-4.92257 12.4202 29.99)
(-5.35542 12.2398 29.99)
(-5.78167 12.0444 29.99)
(-6.2008 11.834 29.99)
(-6.61228 11.6091 29.99)
(-7.01563 11.3699 29.99)
(-7.41033 11.1167 29.99)
(-7.7959 10.8498 29.99)
(-8.17186 10.5695 29.99)
(-8.53776 10.2762 29.99)
(-8.89314 9.97028 29.99)
(-9.23756 9.65203 29.99)
(-9.5706 9.3219 29.99)
(-9.89185 8.98029 29.99)
(-10.2009 8.62761 29.99)
(-10.4974 8.2643 29.99)
(-13.3602 1.63615e-15 0.01)
(-13.3519 -0.468867 0.01)
(-13.3519 0.468867 0.01)
(-13.3273 0.937157 0.01)
(-13.2862 1.40429 0.01)
(-13.2287 1.8697 0.01)
(-13.1549 2.3328 0.01)
(-13.065 2.79303 0.01)
(-12.9589 3.24981 0.01)
(-12.8369 3.70259 0.01)
(-12.699 4.15082 0.01)
(-12.5455 4.59392 0.01)
(-12.3766 5.03137 0.01)
(-12.1924 5.46262 0.01)
(-11.9932 5.88714 0.01)
(-11.7792 6.3044 0.01)
(-11.5507 6.7139 0.01)
(-11.3079 7.11513 0.01)
(-11.0513 7.50759 0.01)
(-10.781 7.89081 0.01)
(-10.4974 8.2643 0.01)
(-10.2009 8.62761 0.01)
(-9.89185 8.98029 0.01)
(-9.5706 9.3219 0.01)
(-9.23756 9.65203 0.01)
(-8.89314 9.97028 0.01)
(-8.53776 10.2762 0.01)
(-8.17186 10.5695 0.01)
(-7.7959 10.8498 0.01)
(-7.41033 11.1167 0.01)
(-7.01563 11.3699 0.01)
(-6.61228 11.6091 0.01)
(-6.2008 11.834 0.01)
(-5.78167 12.0444 0.01)
(-5.35542 12.2398 0.01)
(-4.92257 12.4202 0.01)
(-4.48366 12.5854 0.01)
(-4.03922 12.735 0.01)
(-3.5898 12.8689 0.01)
(-3.13597 12.9869 0.01)
(-2.67827 13.089 0.01)
(-2.21727 13.1749 0.01)
(-1.75354 13.2446 0.01)
(-1.28765 13.298 0.01)
(-0.82017 13.335 0.01)
(-0.351682 13.3555 0.01)
(0.117239 13.3597 0.01)
(0.586016 13.3473 0.01)
(1.05407 13.3185 0.01)
(1.52083 13.2733 0.01)
(1.98571 13.2118 0.01)
(2.44815 13.134 0.01)
(2.90757 13.04 0.01)
(3.3634 12.9299 0.01)
(3.8151 12.8039 0.01)
(4.26209 12.6621 0.01)
(4.70384 12.5047 0.01)
(5.13978 12.3319 0.01)
(5.5694 12.144 0.01)
(5.99216 11.941 0.01)
(6.40753 11.7234 0.01)
(6.81501 11.4913 0.01)
(7.21409 11.2451 0.01)
(7.60428 10.985 0.01)
(7.98511 10.7113 0.01)
(8.3561 10.4245 0.01)
(8.71679 10.1248 0.01)
(9.06674 9.81267 0.01)
(9.40553 9.48843 0.01)
(9.73273 9.1525 0.01)
(10.0479 8.8053 0.01)
(10.3508 8.44725 0.01)
(10.6408 8.0788 0.01)
(10.9178 7.70039 0.01)
(11.1813 7.31249 0.01)
(11.4311 6.91558 0.01)
(11.6667 6.51016 0.01)
(11.888 6.09671 0.01)
(12.0946 5.67575 0.01)
(12.2864 5.2478 0.01)
(12.463 4.81339 0.01)
(12.6242 4.37304 0.01)
(12.7699 3.92731 0.01)
(12.8999 3.47674 0.01)
(13.0139 3.02188 0.01)
(13.112 2.56331 0.01)
(13.1939 2.10157 0.01)
(13.2595 1.63725 0.01)
(13.3088 1.1709 0.01)
(13.3417 0.70312 0.01)
(13.3581 0.23447 0.01)
(13.3581 -0.23447 0.01)
(13.3417 -0.70312 0.01)
(13.3088 -1.1709 0.01)
(13.2595 -1.63725 0.01)
(13.1939 -2.10157 0.01)
(13.112 -2.56331 0.01)
(13.0139 -3.02188 0.01)
(12.8999 -3.47674 0.01)
(12.7699 -3.92731 0.01)
(12.6242 -4.37304 0.01)
(12.463 -4.81339 0.01)
(12.2864 -5.2478 0.01)
(12.0946 -5.67575 0.01)
(11.888 -6.09671 0.01)
(11.6667 -6.51016 0.01)
(11.4311 -6.91558 0.01)
(11.1813 -7.31249 0.01)
(10.9178 -7.70039 0.01)
(10.6408 -8.0788 0.01)
(10.3508 -8.44725 0.01)
(10.0479 -8.8053 0.01)
(9.73273 -9.1525 0.01)
(9.40553 -9.48843 0.01)
(9.06674 -9.81267 0.01)
(8.71679 -10.1248 0.01)
(8.3561 -10.4245 0.01)
(7.98511 -10.7113 0.01)
(7.60428 -10.985 0.01)
(7.21409 -11.2451 0.01)
(6.81501 -11.4913 0.01)
(6.40753 -11.7234 0.01)
(5.99216 -11.941 0.01)
(5.5694 -12.144 0.01)
(5.13978 -12.3319 0.01)
(4.70384 -12.5047 0.01)
(4.26209 -12.6621 0.01)
(3.8151 -12.8039 0.01)
(3.3634 -12.9299 0.01)
(2.90757 -13.04 0.01)
(2.44815 -13.134 0.01)
(1.98571 -13.2118 0.01)
(1.52083 -13.2733 0.01)
(1.05407 -13.3185 0.01)
(0.586016 -13.3473 0.01)
(0.117239 -13.3597 0.01)
(-0.351682 -13.3555 0.01)
(-0.82017 -13.335 0.01)
(-1.28765 -13.298 0.01)
(-1.75354 -13.2446 0.01)
(-2.21727 -13.1749 0.01)
(-2.67827 -13.089 0.01)
(-3.13597 -12.9869 0.01)
(-3.5898 -12.8689 0.01)
(-4.03922 -12.735 0.01)
(-4.48366 -12.5854 0.01)
(-4.92257 -12.4202 0.01)
(-5.35542 -12.2398 0.01)
(-5.78167 -12.0444 0.01)
(-6.2008 -11.834 0.01)
(-6.61228 -11.6091 0.01)
(-7.01563 -11.3699 0.01)
(-7.41033 -11.1167 0.01)
(-7.7959 -10.8498 0.01)
(-8.17186 -10.5695 0.01)
(-8.53776 -10.2762 0.01)
(-8.89314 -9.97028 0.01)
(-9.23756 -9.65203 0.01)
(-9.5706 -9.3219 0.01)
(-9.89185 -8.98029 0.01)
(-10.2009 -8.62761 0.01)
(-10.4974 -8.2643 0.01)
(-10.781 -7.89081 0.01)
(-11.0513 -7.50759 0.01)
(-11.3079 -7.11513 0.01)
(-11.5507 -6.7139 0.01)
(-11.7792 -6.3044 0.01)
(-11.9932 -5.88714 0.01)
(-12.1924 -5.46262 0.01)
(-12.3766 -5.03137 0.01)
(-12.5455 -4.59392 0.01)
(-12.699 -4.15082 0.01)
(-12.8369 -3.70259 0.01)
(-12.9589 -3.24981 0.01)
(-13.065 -2.79303 0.01)
(-13.1549 -2.3328 0.01)
(-13.2287 -1.8697 0.01)
(-13.2862 -1.40429 0.01)
(-13.3273 -0.937157 0.01)
)


// edges:

358
(
(0 1)
(2 3)
(4 0)
(3 5)
(6 4)
(5 7)
(8 6)
(7 9)
(10 8)
(9 11)
(12 10)
(11 13)
(14 12)
(13 15)
(16 14)
(15 17)
(18 16)
(17 19)
(20 18)
(19 21)
(22 20)
(21 23)
(24 22)
(23 25)
(26 24)
(25 27)
(28 26)
(27 29)
(30 28)
(29 31)
(32 30)
(31 33)
(34 32)
(33 35)
(36 34)
(35 37)
(37 38)
(39 2)
(1 40)
(41 39)
(40 42)
(43 41)
(42 44)
(45 43)
(44 46)
(47 45)
(46 48)
(49 47)
(48 50)
(51 49)
(50 52)
(53 51)
(52 54)
(55 53)
(54 56)
(57 55)
(56 58)
(59 57)
(58 60)
(61 59)
(60 62)
(63 61)
(62 64)
(65 63)
(64 66)
(67 65)
(66 68)
(69 67)
(68 70)
(71 69)
(70 72)
(73 71)
(72 74)
(75 73)
(74 76)
(77 75)
(76 78)
(79 77)
(78 80)
(81 79)
(80 82)
(83 81)
(82 84)
(85 83)
(84 86)
(87 85)
(86 88)
(89 87)
(88 90)
(91 89)
(90 92)
(93 91)
(92 94)
(95 93)
(94 96)
(97 95)
(96 98)
(99 97)
(98 100)
(101 99)
(100 102)
(103 101)
(102 104)
(105 103)
(104 106)
(107 105)
(106 108)
(109 107)
(108 110)
(111 109)
(110 112)
(113 111)
(112 114)
(115 113)
(114 116)
(117 115)
(116 118)
(119 117)
(118 120)
(121 119)
(120 122)
(123 121)
(122 124)
(124 125)
(125 123)
(38 126)
(126 127)
(127 128)
(128 129)
(129 130)
(130 131)
(131 132)
(132 133)
(133 134)
(134 135)
(135 136)
(136 137)
(137 138)
(138 139)
(139 140)
(140 141)
(141 142)
(142 143)
(143 144)
(144 145)
(145 146)
(146 147)
(147 148)
(148 149)
(149 150)
(150 151)
(151 152)
(152 153)
(153 154)
(154 155)
(155 156)
(156 157)
(157 158)
(158 159)
(159 160)
(161 36)
(160 162)
(162 163)
(163 164)
(164 165)
(165 166)
(166 167)
(167 168)
(168 169)
(169 170)
(170 171)
(171 172)
(172 173)
(173 174)
(174 175)
(175 176)
(176 177)
(177 178)
(178 161)
(179 180)
(181 179)
(182 181)
(183 182)
(184 183)
(185 184)
(186 185)
(187 186)
(188 187)
(189 188)
(190 189)
(191 190)
(192 191)
(193 192)
(194 193)
(195 194)
(196 195)
(197 196)
(198 197)
(199 198)
(200 199)
(201 200)
(202 201)
(203 202)
(204 203)
(205 204)
(206 205)
(207 206)
(208 207)
(209 208)
(210 209)
(211 210)
(212 211)
(213 212)
(214 213)
(215 214)
(216 215)
(217 216)
(218 217)
(219 218)
(220 219)
(221 220)
(222 221)
(223 222)
(224 223)
(225 224)
(226 225)
(227 226)
(228 227)
(229 228)
(230 229)
(231 230)
(232 231)
(233 232)
(234 233)
(235 234)
(236 235)
(237 236)
(238 237)
(239 238)
(240 239)
(241 240)
(242 241)
(243 242)
(244 243)
(245 244)
(246 245)
(247 246)
(248 247)
(249 248)
(250 249)
(251 250)
(252 251)
(253 252)
(254 253)
(255 254)
(256 255)
(257 256)
(258 257)
(259 258)
(260 259)
(261 260)
(262 261)
(263 262)
(264 263)
(265 264)
(266 265)
(267 266)
(268 267)
(269 268)
(270 269)
(271 270)
(272 271)
(273 272)
(274 273)
(275 274)
(276 275)
(277 276)
(278 277)
(279 278)
(280 279)
(281 280)
(282 281)
(283 282)
(284 283)
(285 284)
(286 285)
(287 286)
(288 287)
(289 288)
(290 289)
(291 290)
(292 291)
(293 292)
(294 293)
(295 294)
(296 295)
(297 296)
(298 297)
(299 298)
(300 299)
(301 300)
(302 301)
(303 302)
(304 303)
(305 304)
(306 305)
(307 306)
(308 307)
(309 308)
(310 309)
(311 310)
(312 311)
(313 312)
(314 313)
(315 314)
(316 315)
(317 316)
(318 317)
(319 318)
(320 319)
(321 320)
(322 321)
(323 322)
(324 323)
(325 324)
(326 325)
(327 326)
(328 327)
(329 328)
(330 329)
(331 330)
(332 331)
(333 332)
(334 333)
(335 334)
(336 335)
(337 336)
(338 337)
(339 338)
(340 339)
(341 340)
(342 341)
(343 342)
(344 343)
(345 344)
(346 345)
(347 346)
(348 347)
(349 348)
(350 349)
(351 350)
(352 351)
(353 352)
(354 353)
(355 354)
(356 355)
(357 356)
(180 357)
)

// * * * * * * * * * * * * * * * * * * * * * * * * * * * * * * * * * * * * * //


// ************************************************************************* //
